%nproc=4
# output=wfn b3lyp/6-31G*

title

0 1
C         -1.20080        0.52014        0.02618
C         -0.65849        1.79875        0.00662
C          0.73147        1.95418        0.00966
C          1.58002        0.83735        0.03236
C          1.01361       -0.43872        0.05166
C         -0.37629       -0.59645        0.04850
C          3.99063        0.15254        0.05602
C          5.34795        0.81013        0.04860
H          6.12973        0.04588        0.07389
H          5.46548        1.40767       -0.85985
H          5.45354        1.45398        0.92638
O         -2.54818        0.31752        0.02422
H         -2.99416        1.17969        0.00857
O          3.88225       -1.06748        0.07858
N          2.96821        1.08475        0.03403
H          3.24493        2.05794        0.01754
H         -1.29266        2.67914       -0.01097
H          1.13939        2.96139       -0.00578
H          1.62350       -1.33635        0.06931
H         -0.80859       -1.59316        0.06357

paracetamol.wfn

