20
paracetamol.log	Energy: -323295.7349655
C          2.59767       -0.12350        0.00008
C          2.12264        1.18175       -0.00061
C          0.74264        1.40924       -0.00036
C         -0.16291        0.33787        0.00037
C          0.33631       -0.96610        0.00117
C          1.71614       -1.19588        0.00108
C         -2.60594       -0.22085       -0.00071
C         -3.92719        0.50653        0.00098
H         -4.74775       -0.21632       -0.00740
H         -4.00874        1.12512        0.89923
H         -4.00380        1.13961       -0.88758
O          3.93269       -0.39592       -0.00023
H          4.42294        0.44201       -0.00176
O         -2.56122       -1.44507       -0.00217
N         -1.53635        0.65712        0.00036
H         -1.76204        1.64353        0.00084
H          2.80179        2.02811       -0.00134
H          0.38770        2.43643       -0.00096
H         -0.31948       -1.83094        0.00204
H          2.09597       -2.21385        0.00175
