%chk=2_meoh_90_90.chk
#P rb3lyp/6-311+g(d,p) pop=esp

header

0 1
     8        1.222565    0.707165   -0.354240
     8       -1.222543   -0.707134   -0.354286
     6       -1.820781    0.370307    0.380641
     1       -2.628118    0.827256   -0.201620
     1       -2.233203   -0.072063    1.287078
     1       -1.078443    1.128623    0.641770
     6        1.820763   -0.370340    0.380626
     1        2.628080   -0.827290   -0.201664
     1        2.233206    0.071965    1.287085
     1        1.078394   -1.128640    0.641715
     1        0.799723    0.450078   -1.176864
     1       -0.799708   -0.449981   -1.176894


